
Spectre (R) Circuit Simulator
Version 21.1.0.509.isr12 64bit -- 24 Sep 2022
Copyright (C) 1989-2022 Cadence Design Systems, Inc. All rights reserved worldwide. Cadence and Spectre are registered trademarks of Cadence Design Systems, Inc. All others are the property of their respective holders.

Includes RSA BSAFE(R) Cryptographic or Security Protocol Software from RSA Security, Inc.

User: designer4   Host: thu-wei   HostID: A8C03CB8   PID: 242462
Memory  available: 48.6984 GB  physical: 134.5838 GB
Linux   : CentOS Linux release 7.9.2009 (Core)
CPU Type: Intel(R) Xeon(R) Gold 6248R CPU @ 3.00GHz
        Socket: Processors [Frequency] (Hyperthreaded Processor)
        0:       0 [3527.0] ( 48 ),  2 [3518.0] ( 50 ),  4 [3486.7] ( 52 )
                 6 [3516.7] ( 54 ),  8 [3599.9] ( 56 ), 10 [3599.9] ( 58 )
                12 [3521.3] ( 60 ), 14 [3369.3] ( 62 ), 16 [3599.9] ( 64 )
                18 [3464.4] ( 66 ), 20 [3530.8] ( 68 ), 22 [3433.0] ( 70 )
                24 [3599.9] ( 72 ), 26 [3532.8] ( 74 ), 28 [3519.3] ( 76 )
                30 [3515.4] ( 78 ), 32 [3490.2] ( 80 ), 34 [3464.0] ( 82 )
                36 [3507.4] ( 84 ), 38 [3489.1] ( 86 ), 40 [3547.7] ( 88 )
                42 [3541.6] ( 90 ), 44 [3435.8] ( 92 ), 46 [3491.1] ( 94 )
        1:       1 [3697.4] ( 49 ),  3 [3700.6] ( 51 ),  5 [1644.8] ( 53 )
                 7 [1255.6] ( 55 ),  9 [1586.2] ( 57 ), 11 [1199.9] ( 59 )
                13 [1270.0] ( 61 ), 15 [1199.9] ( 63 ), 17 [1214.9] ( 65 )
                19 [1277.0] ( 67 ), 21 [1860.9] ( 69 ), 23 [1199.9] ( 71 )
                25 [1276.2] ( 73 ), 27 [1207.0] ( 75 ), 29 [1366.3] ( 77 )
                31 [1669.2] ( 79 ), 33 [1296.8] ( 81 ), 35 [3024.0] ( 83 )
                37 [1199.9] ( 85 ), 39 [1200.1] ( 87 ), 41 [3697.4] ( 89 )
                43 [1204.5] ( 91 ), 45 [1199.9] ( 93 ), 47 [1199.9] ( 95 )
        
System load averages (1min, 5min, 15min) : 27.5 %, 29.1 %, 31.6 %
Hyperthreading is enabled


Simulating `/tmp/virtuoso_bridge_designer4/virtuoso_bridge_spectre/2fc7faf2/tb_cap_dc_ac.scs' on thu-wei at 12:40:50 AM, Mon Apr 6, 2026 (process id: 242462).
Current working directory: /home/designer4
Command line:
    /home/cadence/spectre/SPECTRE211Hotfix/tools/bin/spectre -64  \
        /tmp/virtuoso_bridge_designer4/virtuoso_bridge_spectre/2fc7faf2/tb_cap_dc_ac.scs  \
        +escchars +log  \
        /tmp/virtuoso_bridge_designer4/virtuoso_bridge_spectre/2fc7faf2/spectre.out  \
        -format psfascii -raw  \
        /tmp/virtuoso_bridge_designer4/virtuoso_bridge_spectre/2fc7faf2/tb_cap_dc_ac.raw  \
        +lqtimeout 900 -maxw 5 -maxn 5 +logstatus

Licensing Information:
[00:40:51.341329] Configured Lic search path (21.01-s002): 5280@thu-han

Licensing Information:
[00:40:51.380147] Periodic Lic check successful

Loading /home/cadence/spectre/SPECTRE211Hotfix/tools.lnx86/cmi/lib/64bit/5.0/libinfineon_sh.so ...
Loading /home/cadence/spectre/SPECTRE211Hotfix/tools.lnx86/cmi/lib/64bit/5.0/libphilips_o_sh.so ...
Loading /home/cadence/spectre/SPECTRE211Hotfix/tools.lnx86/cmi/lib/64bit/5.0/libphilips_sh.so ...
Loading /home/cadence/spectre/SPECTRE211Hotfix/tools.lnx86/cmi/lib/64bit/5.0/libsparam_sh.so ...
Loading /home/cadence/spectre/SPECTRE211Hotfix/tools.lnx86/cmi/lib/64bit/5.0/libstmodels_sh.so ...
Reading file:  /tmp/virtuoso_bridge_designer4/virtuoso_bridge_spectre/2fc7faf2/tb_cap_dc_ac.scs
Reading file:  /home/cadence/spectre/SPECTRE211Hotfix/tools.lnx86/spectre/etc/configs/spectre.cfg
Time for NDB Parsing: CPU = 138.017 ms, elapsed = 578.98 ms.
Time accumulated: CPU = 252.998 ms, elapsed = 578.984 ms.
Peak resident memory used = 62.3 Mbytes.

Time for Elaboration: CPU = 45.928 ms, elapsed = 46.756 ms.
Time accumulated: CPU = 299.053 ms, elapsed = 625.866 ms.
Peak resident memory used = 68.5 Mbytes.


Notice from spectre during hierarchy flattening.
    The value 'psf' specified for the 'checklimitdest' option will no longer be supported in future releases. Use 'spectre -h' to see other recommended values for the 'checklimitdest' option.


Time for EDB Visiting: CPU = 1.872 ms, elapsed = 1.88303 ms.
Time accumulated: CPU = 301.267 ms, elapsed = 628.085 ms.
Peak resident memory used = 69.1 Mbytes.


Global user options:
         psfversion = 1.4.0
            vabstol = 1e-06
            iabstol = 1e-12
               temp = 27
               gmin = 1e-12
             rforce = 1
           maxnotes = 5
           maxwarns = 5
             digits = 5
               cols = 80
             pivrel = 0.001
           sensfile = ../psf/sens.output
     checklimitdest = psf
               save = allpub
             reltol = 0.0001
               tnom = 27
             scalem = 1
              scale = 1

Scoped user options:

Circuit inventory:
              nodes 3
          capacitor 2     
           resistor 1     
            vsource 2     

Analysis and control statement inventory:
                 ac 1     
                 dc 1     
               info 1     

Output statements:
             .probe 0     
           .measure 0     
               save 1     

Time for parsing: CPU = 4.046 ms, elapsed = 5.12123 ms.
Time accumulated: CPU = 305.63 ms, elapsed = 633.518 ms.
Peak resident memory used = 70.4 Mbytes.

~~~~~~~~~~~~~~~~~~~~~~
Pre-Simulation Summary
~~~~~~~~~~~~~~~~~~~~~~
~~~~~~~~~~~~~~~~~~~~~~

******************
DC Analysis `dcOp'
******************

Opening the PSFASCII file /tmp/virtuoso_bridge_designer4/virtuoso_bridge_spectre/2fc7faf2/tb_cap_dc_ac.raw/dcOp.dc ...
Important parameter values:
    reltol = 100e-06
    abstol(V) = 1 uV
    abstol(I) = 1 pA
    temp = 27 C
    tnom = 27 C
    tempeffects = all
    gmindc = 1 pS

Maximum value achieved for any signal of each quantity: 
V: V(VDD) = 1 V
I: I(V58:p) = 0 A
Convergence achieved in 2 iterations.
DC simulation time: CPU = 3.219 ms, elapsed = 15.229 ms.
Total time required for dc analysis `dcOp': CPU = 3.344 ms, elapsed = 15.358 ms, util. = 21.8%.
Time accumulated: CPU = 314.839 ms, elapsed = 655.177 ms.
Peak resident memory used = 72 Mbytes.

dcOpInfo: writing operating point information to rawfile.

Opening the PSFASCII file /tmp/virtuoso_bridge_designer4/virtuoso_bridge_spectre/2fc7faf2/tb_cap_dc_ac.raw/dcOpInfo.info ...

******************************************
AC Analysis `ac': freq = (1 MHz -> 10 GHz)
******************************************

Opening the PSFASCII file /tmp/virtuoso_bridge_designer4/virtuoso_bridge_spectre/2fc7faf2/tb_cap_dc_ac.raw/ac.ac ...
    ac: freq = 1.445 MHz      (4 %), step = 243.2 kHz       (2 %)
    ac: freq = 1.738 MHz      (6 %), step = 292.4 kHz       (2 %)
    ac: freq = 2.089 MHz      (8 %), step = 351.5 kHz       (2 %)
    ac: freq = 2.512 MHz     (10 %), step = 422.6 kHz       (2 %)
    ac: freq = 3.02 MHz      (12 %), step = 508.1 kHz       (2 %)
    ac: freq = 3.631 MHz     (14 %), step = 610.8 kHz       (2 %)
    ac: freq = 4.365 MHz     (16 %), step = 734.4 kHz       (2 %)
    ac: freq = 5.248 MHz     (18 %), step = 882.9 kHz       (2 %)
    ac: freq = 6.31 MHz      (20 %), step = 1.061 MHz       (2 %)
    ac: freq = 7.586 MHz     (22 %), step = 1.276 MHz       (2 %)
    ac: freq = 9.12 MHz      (24 %), step = 1.534 MHz       (2 %)
    ac: freq = 10.96 MHz     (26 %), step = 1.845 MHz       (2 %)
    ac: freq = 13.18 MHz     (28 %), step = 2.218 MHz       (2 %)
    ac: freq = 15.85 MHz     (30 %), step = 2.666 MHz       (2 %)
    ac: freq = 19.05 MHz     (32 %), step = 3.206 MHz       (2 %)
    ac: freq = 22.91 MHz     (34 %), step = 3.854 MHz       (2 %)
    ac: freq = 27.54 MHz     (36 %), step = 4.634 MHz       (2 %)
    ac: freq = 33.11 MHz     (38 %), step = 5.571 MHz       (2 %)
    ac: freq = 39.81 MHz     (40 %), step = 6.698 MHz       (2 %)
    ac: freq = 47.86 MHz     (42 %), step = 8.052 MHz       (2 %)
    ac: freq = 57.54 MHz     (44 %), step = 9.681 MHz       (2 %)
    ac: freq = 69.18 MHz     (46 %), step = 11.64 MHz       (2 %)
    ac: freq = 83.18 MHz     (48 %), step = 13.99 MHz       (2 %)
    ac: freq = 100 MHz       (50 %), step = 16.82 MHz       (2 %)
    ac: freq = 120.2 MHz     (52 %), step = 20.23 MHz       (2 %)
    ac: freq = 144.5 MHz     (54 %), step = 24.32 MHz       (2 %)
    ac: freq = 173.8 MHz     (56 %), step = 29.24 MHz       (2 %)
    ac: freq = 208.9 MHz     (58 %), step = 35.15 MHz       (2 %)
    ac: freq = 251.2 MHz     (60 %), step = 42.26 MHz       (2 %)
    ac: freq = 302 MHz       (62 %), step = 50.81 MHz       (2 %)
    ac: freq = 363.1 MHz     (64 %), step = 61.08 MHz       (2 %)
    ac: freq = 436.5 MHz     (66 %), step = 73.44 MHz       (2 %)
    ac: freq = 524.8 MHz     (68 %), step = 88.29 MHz       (2 %)
    ac: freq = 631 MHz       (70 %), step = 106.1 MHz       (2 %)
    ac: freq = 758.6 MHz     (72 %), step = 127.6 MHz       (2 %)
    ac: freq = 912 MHz       (74 %), step = 153.4 MHz       (2 %)
    ac: freq = 1.096 GHz     (76 %), step = 184.5 MHz       (2 %)
    ac: freq = 1.318 GHz     (78 %), step = 221.8 MHz       (2 %)
    ac: freq = 1.585 GHz     (80 %), step = 266.6 MHz       (2 %)
    ac: freq = 1.905 GHz     (82 %), step = 320.6 MHz       (2 %)
    ac: freq = 2.291 GHz     (84 %), step = 385.4 MHz       (2 %)
    ac: freq = 2.754 GHz     (86 %), step = 463.4 MHz       (2 %)
    ac: freq = 3.311 GHz     (88 %), step = 557.1 MHz       (2 %)
    ac: freq = 3.981 GHz     (90 %), step = 669.8 MHz       (2 %)
    ac: freq = 4.786 GHz     (92 %), step = 805.2 MHz       (2 %)
    ac: freq = 5.754 GHz     (94 %), step = 968.1 MHz       (2 %)
    ac: freq = 6.918 GHz     (96 %), step = 1.164 GHz       (2 %)
    ac: freq = 8.318 GHz     (98 %), step = 1.399 GHz       (2 %)
    ac: freq = 10 GHz       (100 %), step = 1.682 GHz       (2 %)
Accumulated DC solution time =            0 s.
Intrinsic ac analysis time =              0 s.
Total time required for ac analysis `ac': CPU = 2.738 ms, elapsed = 3.00503 ms, util. = 91.1%.
Time accumulated: CPU = 319.777 ms, elapsed = 661.342 ms.
Peak resident memory used = 72.4 Mbytes.

Licensing Information:
Lic Summary:
[00:40:51.015856] Cdslmd servers:5280@thu-han
[00:40:51.015904] Feature usage summary:
[00:40:51.015905] Virtuoso_Multi_mode_Simulation


Aggregate audit (12:40:51 AM, Mon Apr 6, 2026):
Time used: CPU = 324 ms, elapsed = 668 ms, util. = 48.5%.
Time spent in licensing: elapsed = 231 ms, percentage of total = 34.6%.
Peak memory used = 73 Mbytes.
Simulation started at: 12:40:50 AM, Mon Apr 6, 2026, ended at: 12:40:51 AM, Mon Apr 6, 2026, with elapsed time (wall clock): 668 ms.
spectre completes with 0 errors, 0 warnings, and 2 notices.
