
Spectre (R) Circuit Simulator
Version 21.1.0.509.isr12 64bit -- 24 Sep 2022
Copyright (C) 1989-2022 Cadence Design Systems, Inc. All rights reserved worldwide. Cadence and Spectre are registered trademarks of Cadence Design Systems, Inc. All others are the property of their respective holders.

Includes RSA BSAFE(R) Cryptographic or Security Protocol Software from RSA Security, Inc.

User: designer3   Host: thu-wei   HostID: A8C03CB8   PID: 242463
Memory  available: 48.6873 GB  physical: 134.5838 GB
Linux   : CentOS Linux release 7.9.2009 (Core)
CPU Type: Intel(R) Xeon(R) Gold 6248R CPU @ 3.00GHz
        Socket: Processors [Frequency] (Hyperthreaded Processor)
        0:       0 [3527.0] ( 48 ),  2 [3518.0] ( 50 ),  4 [3486.7] ( 52 )
                 6 [3516.7] ( 54 ),  8 [3599.9] ( 56 ), 10 [3599.9] ( 58 )
                12 [3521.3] ( 60 ), 14 [3369.3] ( 62 ), 16 [3599.9] ( 64 )
                18 [3464.4] ( 66 ), 20 [3530.8] ( 68 ), 22 [3433.0] ( 70 )
                24 [3599.9] ( 72 ), 26 [3532.8] ( 74 ), 28 [3471.3] ( 76 )
                30 [3515.4] ( 78 ), 32 [3490.2] ( 80 ), 34 [3464.0] ( 82 )
                36 [3507.4] ( 84 ), 38 [3489.1] ( 86 ), 40 [3547.7] ( 88 )
                42 [3541.6] ( 90 ), 44 [3435.8] ( 92 ), 46 [3491.1] ( 94 )
        1:       1 [3699.8] ( 49 ),  3 [3700.6] ( 51 ),  5 [1644.8] ( 53 )
                 7 [1229.9] ( 55 ),  9 [1586.2] ( 57 ), 11 [1199.9] ( 59 )
                13 [1270.0] ( 61 ), 15 [2514.0] ( 63 ), 17 [1214.9] ( 65 )
                19 [1200.1] ( 67 ), 21 [1860.9] ( 69 ), 23 [1199.9] ( 71 )
                25 [1276.2] ( 73 ), 27 [1207.0] ( 75 ), 29 [1366.3] ( 77 )
                31 [1669.2] ( 79 ), 33 [1296.8] ( 81 ), 35 [3024.0] ( 83 )
                37 [1199.9] ( 85 ), 39 [1200.1] ( 87 ), 41 [3699.8] ( 89 )
                43 [1204.5] ( 91 ), 45 [1199.9] ( 93 ), 47 [1199.9] ( 95 )
        
System load averages (1min, 5min, 15min) : 27.5 %, 29.1 %, 31.6 %
Hyperthreading is enabled


Simulating `/tmp/virtuoso_bridge_designer3/virtuoso_bridge_spectre/5dd5e306/tb_cmp_strongarm.scs' on thu-wei at 12:40:50 AM, Mon Apr 6, 2026 (process id: 242463).
Current working directory: /home/designer3
Command line:
    /home/cadence/spectre/SPECTRE211Hotfix/tools/bin/spectre -64  \
        /tmp/virtuoso_bridge_designer3/virtuoso_bridge_spectre/5dd5e306/tb_cmp_strongarm.scs  \
        +escchars +log  \
        /tmp/virtuoso_bridge_designer3/virtuoso_bridge_spectre/5dd5e306/spectre.out  \
        -format psfascii -raw  \
        /tmp/virtuoso_bridge_designer3/virtuoso_bridge_spectre/5dd5e306/tb_cmp_strongarm.raw  \
        +lqtimeout 900 -maxw 5 -maxn 5 +logstatus
